models/IEEE_37_Bus-G/Transformer.DSS
New "Transformer.subxf" phases=3 windings=2 Xhl=8 buses=[sourcebus, 799, ] conns=[delta, delta, ] kVs=[230, 4.8, ] kVAs=[2500, 2500, ] taps=[1, 1, ] wdg=1 %R=1 wdg=2 %R=1
New "Transformer.xfm1" phases=3 windings=2 Xhl=1.81 buses=[709, 775, ] conns=[delta, delta, ] kVs=[4.8, 0.48, ] kVAs=[500, 500, ] taps=[1, 1, ] wdg=1 %R=0.045 wdg=2 %R=0.045
New "Transformer.reg1a" phases=1 windings=2 bank=reg1 buses=[799.1.2, 799r.1.2, ] conns=[delta, delta, ] kVs=[4.8, 4.8, ] kVAs=[2000, 2000, ] Xhl=1
New "Transformer.reg1c" phases=1 windings=2 buses=[799.3.2, 799r.3.2, ] conns=[delta, delta, ] kVs=[4.8, 4.8, ] kVAs=[2000, 2000, ] taps=[1, 1.0875, ] wdg=1 %R=0.2 wdg=2 %R=0.2 Rneut=-1 Xneut=0 conns=[delta, delta, ] kVs=[4.8, 4.8, ] kVAs=[2000, 2000, ] taps=[1, 1.0875, ] Xhl=1 Xht=35 Xlt=30 Xscarray=[1, ] thermal=2 n=.8 m=.8 flrise=65 hsrise=15 %loadloss=0.4 %noloadloss=0 normhkVA=2200 emerghkVA=3000 sub=n MaxTap=1.1 MinTap=0.9 NumTaps=32 %imag=0 ppm_antifloat=1 %Rs=[0.2, 0.2, ] XRConst=NO X12=1 X13=35 X23=30 LeadLag=Lag normamps=458.33 emergamps=625 faultrate=0.007 pctperm=100 repair=36 basefreq=60 enabled=true bank=reg1 buses=[799.3.2, 799r.3.2, ]
